# File generated by Flopy version 3.3.6 on 09/09/2022 at 13:29:33.
BEGIN options
END options

BEGIN timing
  TDIS6  TRANSECT.tdis
END timing

BEGIN models
  gwf6  RL.nam  RL
  gwf6  VO.nam  VO
END models

BEGIN exchanges
END exchanges

BEGIN solutiongroup  1
  ims6  TRANSECT.ims  RL  VO
END solutiongroup  1

