# File generated by Flopy version 3.3.6 on 09/09/2022 at 13:29:33.
BEGIN options
END options

BEGIN dimensions
  MAXBOUND  196
END dimensions

BEGIN period  1
  1 1 1    -493.66025404
  1 1 2    -510.98076211
  1 1 3    -528.30127019
  1 1 4    -545.62177826
  1 1 5    -562.94228634
  1 1 6    -580.26279442
  1 1 7    -597.58330249
  1 1 8    -614.90381057
  1 1 9    -632.22431864
  1 1 10    -649.54482672
  1 1 11    -666.86533479
  1 1 12    -684.18584287
  1 1 13    -701.50635095
  1 1 14    -718.82685902
  1 1 15    -736.14736710
  1 1 16    -753.46787517
  1 1 17    -770.78838325
  1 1 18    -788.10889132
  1 1 19    -805.42939940
  1 1 20    -822.74990748
  1 1 21    -840.07041555
  1 1 22    -857.39092363
  1 1 23    -874.71143170
  1 1 24    -892.03193978
  1 1 25    -909.35244785
  1 1 26    -926.67295593
  1 1 27    -943.99346401
  1 1 28    -961.31397208
  1 1 29    -978.63448016
  1 1 30    -995.95498823
  1 1 31   -1013.27549631
  1 1 32   -1030.59600438
  1 1 33   -1047.91651246
  1 1 34   -1065.23702054
  1 1 35   -1082.55752861
  1 1 36   -1099.87803669
  1 1 37   -1117.19854476
  1 1 38   -1134.51905284
  1 1 39   -1151.83956091
  1 1 40   -1169.16006899
  1 1 41   -1186.48057707
  1 1 42   -1203.80108514
  1 1 43   -1221.12159322
  1 1 44   -1238.44210129
  1 1 45   -1255.76260937
  1 1 46   -1273.08311744
  1 1 47   -1290.40362552
  1 1 48   -1307.72413360
  1 1 49   -1325.04464167
  1 1 50   -1342.36514975
  2 1 1    -483.66025404
  2 1 50   -1332.36514975
  3 1 1    -473.66025404
  3 1 50   -1322.36514975
  4 1 1    -463.66025404
  4 1 50   -1312.36514975
  5 1 1    -453.66025404
  5 1 50   -1302.36514975
  6 1 1    -443.66025404
  6 1 50   -1292.36514975
  7 1 1    -433.66025404
  7 1 50   -1282.36514975
  8 1 1    -423.66025404
  8 1 50   -1272.36514975
  9 1 1    -413.66025404
  9 1 50   -1262.36514975
  10 1 1    -403.66025404
  10 1 50   -1252.36514975
  11 1 1    -393.66025404
  11 1 50   -1242.36514975
  12 1 1    -383.66025404
  12 1 50   -1232.36514975
  13 1 1    -373.66025404
  13 1 50   -1222.36514975
  14 1 1    -363.66025404
  14 1 50   -1212.36514975
  15 1 1    -353.66025404
  15 1 50   -1202.36514975
  16 1 1    -343.66025404
  16 1 50   -1192.36514975
  17 1 1    -333.66025404
  17 1 50   -1182.36514975
  18 1 1    -323.66025404
  18 1 50   -1172.36514975
  19 1 1    -313.66025404
  19 1 50   -1162.36514975
  20 1 1    -303.66025404
  20 1 50   -1152.36514975
  21 1 1    -293.66025404
  21 1 50   -1142.36514975
  22 1 1    -283.66025404
  22 1 50   -1132.36514975
  23 1 1    -273.66025404
  23 1 50   -1122.36514975
  24 1 1    -263.66025404
  24 1 50   -1112.36514975
  25 1 1    -253.66025404
  25 1 50   -1102.36514975
  26 1 1    -243.66025404
  26 1 50   -1092.36514975
  27 1 1    -233.66025404
  27 1 50   -1082.36514975
  28 1 1    -223.66025404
  28 1 50   -1072.36514975
  29 1 1    -213.66025404
  29 1 50   -1062.36514975
  30 1 1    -203.66025404
  30 1 50   -1052.36514975
  31 1 1    -193.66025404
  31 1 50   -1042.36514975
  32 1 1    -183.66025404
  32 1 50   -1032.36514975
  33 1 1    -173.66025404
  33 1 50   -1022.36514975
  34 1 1    -163.66025404
  34 1 50   -1012.36514975
  35 1 1    -153.66025404
  35 1 50   -1002.36514975
  36 1 1    -143.66025404
  36 1 50    -992.36514975
  37 1 1    -133.66025404
  37 1 50    -982.36514975
  38 1 1    -123.66025404
  38 1 50    -972.36514975
  39 1 1    -113.66025404
  39 1 50    -962.36514975
  40 1 1    -103.66025404
  40 1 50    -952.36514975
  41 1 1     -93.66025404
  41 1 50    -942.36514975
  42 1 1     -83.66025404
  42 1 50    -932.36514975
  43 1 1     -73.66025404
  43 1 50    -922.36514975
  44 1 1     -63.66025404
  44 1 50    -912.36514975
  45 1 1     -53.66025404
  45 1 50    -902.36514975
  46 1 1     -43.66025404
  46 1 50    -892.36514975
  47 1 1     -33.66025404
  47 1 50    -882.36514975
  48 1 1     -23.66025404
  48 1 50    -872.36514975
  49 1 1     -13.66025404
  49 1 50    -862.36514975
  50 1 1      -3.66025404
  50 1 2     -20.98076211
  50 1 3     -38.30127019
  50 1 4     -55.62177826
  50 1 5     -72.94228634
  50 1 6     -90.26279442
  50 1 7    -107.58330249
  50 1 8    -124.90381057
  50 1 9    -142.22431864
  50 1 10    -159.54482672
  50 1 11    -176.86533479
  50 1 12    -194.18584287
  50 1 13    -211.50635095
  50 1 14    -228.82685902
  50 1 15    -246.14736710
  50 1 16    -263.46787517
  50 1 17    -280.78838325
  50 1 18    -298.10889132
  50 1 19    -315.42939940
  50 1 20    -332.74990748
  50 1 21    -350.07041555
  50 1 22    -367.39092363
  50 1 23    -384.71143170
  50 1 24    -402.03193978
  50 1 25    -419.35244785
  50 1 26    -436.67295593
  50 1 27    -453.99346401
  50 1 28    -471.31397208
  50 1 29    -488.63448016
  50 1 30    -505.95498823
  50 1 31    -523.27549631
  50 1 32    -540.59600438
  50 1 33    -557.91651246
  50 1 34    -575.23702054
  50 1 35    -592.55752861
  50 1 36    -609.87803669
  50 1 37    -627.19854476
  50 1 38    -644.51905284
  50 1 39    -661.83956091
  50 1 40    -679.16006899
  50 1 41    -696.48057707
  50 1 42    -713.80108514
  50 1 43    -731.12159322
  50 1 44    -748.44210129
  50 1 45    -765.76260937
  50 1 46    -783.08311744
  50 1 47    -800.40362552
  50 1 48    -817.72413360
  50 1 49    -835.04464167
  50 1 50    -852.36514975
END period  1

