# File generated by Flopy version 3.3.6 on 09/09/2022 at 13:29:33.
BEGIN options
END options

BEGIN dimensions
  NLAY  50
  NROW  1
  NCOL  50
END dimensions

BEGIN griddata
  delr
    CONSTANT      20.00000000
  delc
    CONSTANT       1.00000000
  top
    INTERNAL  FACTOR  1.0
      1000.00000000    1000.00000000    1000.00000000    1000.00000000    1000.00000000    1000.00000000    1000.00000000    1000.00000000    1000.00000000    1000.00000000    1000.00000000    1000.00000000    1000.00000000    1000.00000000    1000.00000000    1000.00000000    1000.00000000    1000.00000000    1000.00000000    1000.00000000    1000.00000000    1000.00000000    1000.00000000    1000.00000000    1000.00000000    1000.00000000    1000.00000000    1000.00000000    1000.00000000    1000.00000000    1000.00000000    1000.00000000    1000.00000000    1000.00000000    1000.00000000    1000.00000000    1000.00000000    1000.00000000    1000.00000000    1000.00000000    1000.00000000    1000.00000000    1000.00000000    1000.00000000    1000.00000000    1000.00000000    1000.00000000    1000.00000000    1000.00000000    1000.00000000
  botm  LAYERED
    INTERNAL  FACTOR  1.0
         980.00000000     980.00000000     980.00000000     980.00000000     980.00000000     980.00000000     980.00000000     980.00000000     980.00000000     980.00000000     980.00000000     980.00000000     980.00000000     980.00000000     980.00000000     980.00000000     980.00000000     980.00000000     980.00000000     980.00000000     980.00000000     980.00000000     980.00000000     980.00000000     980.00000000     980.00000000     980.00000000     980.00000000     980.00000000     980.00000000     980.00000000     980.00000000     980.00000000     980.00000000     980.00000000     980.00000000     980.00000000     980.00000000     980.00000000     980.00000000     980.00000000     980.00000000     980.00000000     980.00000000     980.00000000     980.00000000     980.00000000     980.00000000     980.00000000     980.00000000
    INTERNAL  FACTOR  1.0
         960.00000000     960.00000000     960.00000000     960.00000000     960.00000000     960.00000000     960.00000000     960.00000000     960.00000000     960.00000000     960.00000000     960.00000000     960.00000000     960.00000000     960.00000000     960.00000000     960.00000000     960.00000000     960.00000000     960.00000000     960.00000000     960.00000000     960.00000000     960.00000000     960.00000000     960.00000000     960.00000000     960.00000000     960.00000000     960.00000000     960.00000000     960.00000000     960.00000000     960.00000000     960.00000000     960.00000000     960.00000000     960.00000000     960.00000000     960.00000000     960.00000000     960.00000000     960.00000000     960.00000000     960.00000000     960.00000000     960.00000000     960.00000000     960.00000000     960.00000000
    INTERNAL  FACTOR  1.0
         940.00000000     940.00000000     940.00000000     940.00000000     940.00000000     940.00000000     940.00000000     940.00000000     940.00000000     940.00000000     940.00000000     940.00000000     940.00000000     940.00000000     940.00000000     940.00000000     940.00000000     940.00000000     940.00000000     940.00000000     940.00000000     940.00000000     940.00000000     940.00000000     940.00000000     940.00000000     940.00000000     940.00000000     940.00000000     940.00000000     940.00000000     940.00000000     940.00000000     940.00000000     940.00000000     940.00000000     940.00000000     940.00000000     940.00000000     940.00000000     940.00000000     940.00000000     940.00000000     940.00000000     940.00000000     940.00000000     940.00000000     940.00000000     940.00000000     940.00000000
    INTERNAL  FACTOR  1.0
         920.00000000     920.00000000     920.00000000     920.00000000     920.00000000     920.00000000     920.00000000     920.00000000     920.00000000     920.00000000     920.00000000     920.00000000     920.00000000     920.00000000     920.00000000     920.00000000     920.00000000     920.00000000     920.00000000     920.00000000     920.00000000     920.00000000     920.00000000     920.00000000     920.00000000     920.00000000     920.00000000     920.00000000     920.00000000     920.00000000     920.00000000     920.00000000     920.00000000     920.00000000     920.00000000     920.00000000     920.00000000     920.00000000     920.00000000     920.00000000     920.00000000     920.00000000     920.00000000     920.00000000     920.00000000     920.00000000     920.00000000     920.00000000     920.00000000     920.00000000
    INTERNAL  FACTOR  1.0
         900.00000000     900.00000000     900.00000000     900.00000000     900.00000000     900.00000000     900.00000000     900.00000000     900.00000000     900.00000000     900.00000000     900.00000000     900.00000000     900.00000000     900.00000000     900.00000000     900.00000000     900.00000000     900.00000000     900.00000000     900.00000000     900.00000000     900.00000000     900.00000000     900.00000000     900.00000000     900.00000000     900.00000000     900.00000000     900.00000000     900.00000000     900.00000000     900.00000000     900.00000000     900.00000000     900.00000000     900.00000000     900.00000000     900.00000000     900.00000000     900.00000000     900.00000000     900.00000000     900.00000000     900.00000000     900.00000000     900.00000000     900.00000000     900.00000000     900.00000000
    INTERNAL  FACTOR  1.0
         880.00000000     880.00000000     880.00000000     880.00000000     880.00000000     880.00000000     880.00000000     880.00000000     880.00000000     880.00000000     880.00000000     880.00000000     880.00000000     880.00000000     880.00000000     880.00000000     880.00000000     880.00000000     880.00000000     880.00000000     880.00000000     880.00000000     880.00000000     880.00000000     880.00000000     880.00000000     880.00000000     880.00000000     880.00000000     880.00000000     880.00000000     880.00000000     880.00000000     880.00000000     880.00000000     880.00000000     880.00000000     880.00000000     880.00000000     880.00000000     880.00000000     880.00000000     880.00000000     880.00000000     880.00000000     880.00000000     880.00000000     880.00000000     880.00000000     880.00000000
    INTERNAL  FACTOR  1.0
         860.00000000     860.00000000     860.00000000     860.00000000     860.00000000     860.00000000     860.00000000     860.00000000     860.00000000     860.00000000     860.00000000     860.00000000     860.00000000     860.00000000     860.00000000     860.00000000     860.00000000     860.00000000     860.00000000     860.00000000     860.00000000     860.00000000     860.00000000     860.00000000     860.00000000     860.00000000     860.00000000     860.00000000     860.00000000     860.00000000     860.00000000     860.00000000     860.00000000     860.00000000     860.00000000     860.00000000     860.00000000     860.00000000     860.00000000     860.00000000     860.00000000     860.00000000     860.00000000     860.00000000     860.00000000     860.00000000     860.00000000     860.00000000     860.00000000     860.00000000
    INTERNAL  FACTOR  1.0
         840.00000000     840.00000000     840.00000000     840.00000000     840.00000000     840.00000000     840.00000000     840.00000000     840.00000000     840.00000000     840.00000000     840.00000000     840.00000000     840.00000000     840.00000000     840.00000000     840.00000000     840.00000000     840.00000000     840.00000000     840.00000000     840.00000000     840.00000000     840.00000000     840.00000000     840.00000000     840.00000000     840.00000000     840.00000000     840.00000000     840.00000000     840.00000000     840.00000000     840.00000000     840.00000000     840.00000000     840.00000000     840.00000000     840.00000000     840.00000000     840.00000000     840.00000000     840.00000000     840.00000000     840.00000000     840.00000000     840.00000000     840.00000000     840.00000000     840.00000000
    INTERNAL  FACTOR  1.0
         820.00000000     820.00000000     820.00000000     820.00000000     820.00000000     820.00000000     820.00000000     820.00000000     820.00000000     820.00000000     820.00000000     820.00000000     820.00000000     820.00000000     820.00000000     820.00000000     820.00000000     820.00000000     820.00000000     820.00000000     820.00000000     820.00000000     820.00000000     820.00000000     820.00000000     820.00000000     820.00000000     820.00000000     820.00000000     820.00000000     820.00000000     820.00000000     820.00000000     820.00000000     820.00000000     820.00000000     820.00000000     820.00000000     820.00000000     820.00000000     820.00000000     820.00000000     820.00000000     820.00000000     820.00000000     820.00000000     820.00000000     820.00000000     820.00000000     820.00000000
    INTERNAL  FACTOR  1.0
         800.00000000     800.00000000     800.00000000     800.00000000     800.00000000     800.00000000     800.00000000     800.00000000     800.00000000     800.00000000     800.00000000     800.00000000     800.00000000     800.00000000     800.00000000     800.00000000     800.00000000     800.00000000     800.00000000     800.00000000     800.00000000     800.00000000     800.00000000     800.00000000     800.00000000     800.00000000     800.00000000     800.00000000     800.00000000     800.00000000     800.00000000     800.00000000     800.00000000     800.00000000     800.00000000     800.00000000     800.00000000     800.00000000     800.00000000     800.00000000     800.00000000     800.00000000     800.00000000     800.00000000     800.00000000     800.00000000     800.00000000     800.00000000     800.00000000     800.00000000
    INTERNAL  FACTOR  1.0
         780.00000000     780.00000000     780.00000000     780.00000000     780.00000000     780.00000000     780.00000000     780.00000000     780.00000000     780.00000000     780.00000000     780.00000000     780.00000000     780.00000000     780.00000000     780.00000000     780.00000000     780.00000000     780.00000000     780.00000000     780.00000000     780.00000000     780.00000000     780.00000000     780.00000000     780.00000000     780.00000000     780.00000000     780.00000000     780.00000000     780.00000000     780.00000000     780.00000000     780.00000000     780.00000000     780.00000000     780.00000000     780.00000000     780.00000000     780.00000000     780.00000000     780.00000000     780.00000000     780.00000000     780.00000000     780.00000000     780.00000000     780.00000000     780.00000000     780.00000000
    INTERNAL  FACTOR  1.0
         760.00000000     760.00000000     760.00000000     760.00000000     760.00000000     760.00000000     760.00000000     760.00000000     760.00000000     760.00000000     760.00000000     760.00000000     760.00000000     760.00000000     760.00000000     760.00000000     760.00000000     760.00000000     760.00000000     760.00000000     760.00000000     760.00000000     760.00000000     760.00000000     760.00000000     760.00000000     760.00000000     760.00000000     760.00000000     760.00000000     760.00000000     760.00000000     760.00000000     760.00000000     760.00000000     760.00000000     760.00000000     760.00000000     760.00000000     760.00000000     760.00000000     760.00000000     760.00000000     760.00000000     760.00000000     760.00000000     760.00000000     760.00000000     760.00000000     760.00000000
    INTERNAL  FACTOR  1.0
         740.00000000     740.00000000     740.00000000     740.00000000     740.00000000     740.00000000     740.00000000     740.00000000     740.00000000     740.00000000     740.00000000     740.00000000     740.00000000     740.00000000     740.00000000     740.00000000     740.00000000     740.00000000     740.00000000     740.00000000     740.00000000     740.00000000     740.00000000     740.00000000     740.00000000     740.00000000     740.00000000     740.00000000     740.00000000     740.00000000     740.00000000     740.00000000     740.00000000     740.00000000     740.00000000     740.00000000     740.00000000     740.00000000     740.00000000     740.00000000     740.00000000     740.00000000     740.00000000     740.00000000     740.00000000     740.00000000     740.00000000     740.00000000     740.00000000     740.00000000
    INTERNAL  FACTOR  1.0
         720.00000000     720.00000000     720.00000000     720.00000000     720.00000000     720.00000000     720.00000000     720.00000000     720.00000000     720.00000000     720.00000000     720.00000000     720.00000000     720.00000000     720.00000000     720.00000000     720.00000000     720.00000000     720.00000000     720.00000000     720.00000000     720.00000000     720.00000000     720.00000000     720.00000000     720.00000000     720.00000000     720.00000000     720.00000000     720.00000000     720.00000000     720.00000000     720.00000000     720.00000000     720.00000000     720.00000000     720.00000000     720.00000000     720.00000000     720.00000000     720.00000000     720.00000000     720.00000000     720.00000000     720.00000000     720.00000000     720.00000000     720.00000000     720.00000000     720.00000000
    INTERNAL  FACTOR  1.0
         700.00000000     700.00000000     700.00000000     700.00000000     700.00000000     700.00000000     700.00000000     700.00000000     700.00000000     700.00000000     700.00000000     700.00000000     700.00000000     700.00000000     700.00000000     700.00000000     700.00000000     700.00000000     700.00000000     700.00000000     700.00000000     700.00000000     700.00000000     700.00000000     700.00000000     700.00000000     700.00000000     700.00000000     700.00000000     700.00000000     700.00000000     700.00000000     700.00000000     700.00000000     700.00000000     700.00000000     700.00000000     700.00000000     700.00000000     700.00000000     700.00000000     700.00000000     700.00000000     700.00000000     700.00000000     700.00000000     700.00000000     700.00000000     700.00000000     700.00000000
    INTERNAL  FACTOR  1.0
         680.00000000     680.00000000     680.00000000     680.00000000     680.00000000     680.00000000     680.00000000     680.00000000     680.00000000     680.00000000     680.00000000     680.00000000     680.00000000     680.00000000     680.00000000     680.00000000     680.00000000     680.00000000     680.00000000     680.00000000     680.00000000     680.00000000     680.00000000     680.00000000     680.00000000     680.00000000     680.00000000     680.00000000     680.00000000     680.00000000     680.00000000     680.00000000     680.00000000     680.00000000     680.00000000     680.00000000     680.00000000     680.00000000     680.00000000     680.00000000     680.00000000     680.00000000     680.00000000     680.00000000     680.00000000     680.00000000     680.00000000     680.00000000     680.00000000     680.00000000
    INTERNAL  FACTOR  1.0
         660.00000000     660.00000000     660.00000000     660.00000000     660.00000000     660.00000000     660.00000000     660.00000000     660.00000000     660.00000000     660.00000000     660.00000000     660.00000000     660.00000000     660.00000000     660.00000000     660.00000000     660.00000000     660.00000000     660.00000000     660.00000000     660.00000000     660.00000000     660.00000000     660.00000000     660.00000000     660.00000000     660.00000000     660.00000000     660.00000000     660.00000000     660.00000000     660.00000000     660.00000000     660.00000000     660.00000000     660.00000000     660.00000000     660.00000000     660.00000000     660.00000000     660.00000000     660.00000000     660.00000000     660.00000000     660.00000000     660.00000000     660.00000000     660.00000000     660.00000000
    INTERNAL  FACTOR  1.0
         640.00000000     640.00000000     640.00000000     640.00000000     640.00000000     640.00000000     640.00000000     640.00000000     640.00000000     640.00000000     640.00000000     640.00000000     640.00000000     640.00000000     640.00000000     640.00000000     640.00000000     640.00000000     640.00000000     640.00000000     640.00000000     640.00000000     640.00000000     640.00000000     640.00000000     640.00000000     640.00000000     640.00000000     640.00000000     640.00000000     640.00000000     640.00000000     640.00000000     640.00000000     640.00000000     640.00000000     640.00000000     640.00000000     640.00000000     640.00000000     640.00000000     640.00000000     640.00000000     640.00000000     640.00000000     640.00000000     640.00000000     640.00000000     640.00000000     640.00000000
    INTERNAL  FACTOR  1.0
         620.00000000     620.00000000     620.00000000     620.00000000     620.00000000     620.00000000     620.00000000     620.00000000     620.00000000     620.00000000     620.00000000     620.00000000     620.00000000     620.00000000     620.00000000     620.00000000     620.00000000     620.00000000     620.00000000     620.00000000     620.00000000     620.00000000     620.00000000     620.00000000     620.00000000     620.00000000     620.00000000     620.00000000     620.00000000     620.00000000     620.00000000     620.00000000     620.00000000     620.00000000     620.00000000     620.00000000     620.00000000     620.00000000     620.00000000     620.00000000     620.00000000     620.00000000     620.00000000     620.00000000     620.00000000     620.00000000     620.00000000     620.00000000     620.00000000     620.00000000
    INTERNAL  FACTOR  1.0
         600.00000000     600.00000000     600.00000000     600.00000000     600.00000000     600.00000000     600.00000000     600.00000000     600.00000000     600.00000000     600.00000000     600.00000000     600.00000000     600.00000000     600.00000000     600.00000000     600.00000000     600.00000000     600.00000000     600.00000000     600.00000000     600.00000000     600.00000000     600.00000000     600.00000000     600.00000000     600.00000000     600.00000000     600.00000000     600.00000000     600.00000000     600.00000000     600.00000000     600.00000000     600.00000000     600.00000000     600.00000000     600.00000000     600.00000000     600.00000000     600.00000000     600.00000000     600.00000000     600.00000000     600.00000000     600.00000000     600.00000000     600.00000000     600.00000000     600.00000000
    INTERNAL  FACTOR  1.0
         580.00000000     580.00000000     580.00000000     580.00000000     580.00000000     580.00000000     580.00000000     580.00000000     580.00000000     580.00000000     580.00000000     580.00000000     580.00000000     580.00000000     580.00000000     580.00000000     580.00000000     580.00000000     580.00000000     580.00000000     580.00000000     580.00000000     580.00000000     580.00000000     580.00000000     580.00000000     580.00000000     580.00000000     580.00000000     580.00000000     580.00000000     580.00000000     580.00000000     580.00000000     580.00000000     580.00000000     580.00000000     580.00000000     580.00000000     580.00000000     580.00000000     580.00000000     580.00000000     580.00000000     580.00000000     580.00000000     580.00000000     580.00000000     580.00000000     580.00000000
    INTERNAL  FACTOR  1.0
         560.00000000     560.00000000     560.00000000     560.00000000     560.00000000     560.00000000     560.00000000     560.00000000     560.00000000     560.00000000     560.00000000     560.00000000     560.00000000     560.00000000     560.00000000     560.00000000     560.00000000     560.00000000     560.00000000     560.00000000     560.00000000     560.00000000     560.00000000     560.00000000     560.00000000     560.00000000     560.00000000     560.00000000     560.00000000     560.00000000     560.00000000     560.00000000     560.00000000     560.00000000     560.00000000     560.00000000     560.00000000     560.00000000     560.00000000     560.00000000     560.00000000     560.00000000     560.00000000     560.00000000     560.00000000     560.00000000     560.00000000     560.00000000     560.00000000     560.00000000
    INTERNAL  FACTOR  1.0
         540.00000000     540.00000000     540.00000000     540.00000000     540.00000000     540.00000000     540.00000000     540.00000000     540.00000000     540.00000000     540.00000000     540.00000000     540.00000000     540.00000000     540.00000000     540.00000000     540.00000000     540.00000000     540.00000000     540.00000000     540.00000000     540.00000000     540.00000000     540.00000000     540.00000000     540.00000000     540.00000000     540.00000000     540.00000000     540.00000000     540.00000000     540.00000000     540.00000000     540.00000000     540.00000000     540.00000000     540.00000000     540.00000000     540.00000000     540.00000000     540.00000000     540.00000000     540.00000000     540.00000000     540.00000000     540.00000000     540.00000000     540.00000000     540.00000000     540.00000000
    INTERNAL  FACTOR  1.0
         520.00000000     520.00000000     520.00000000     520.00000000     520.00000000     520.00000000     520.00000000     520.00000000     520.00000000     520.00000000     520.00000000     520.00000000     520.00000000     520.00000000     520.00000000     520.00000000     520.00000000     520.00000000     520.00000000     520.00000000     520.00000000     520.00000000     520.00000000     520.00000000     520.00000000     520.00000000     520.00000000     520.00000000     520.00000000     520.00000000     520.00000000     520.00000000     520.00000000     520.00000000     520.00000000     520.00000000     520.00000000     520.00000000     520.00000000     520.00000000     520.00000000     520.00000000     520.00000000     520.00000000     520.00000000     520.00000000     520.00000000     520.00000000     520.00000000     520.00000000
    INTERNAL  FACTOR  1.0
         500.00000000     500.00000000     500.00000000     500.00000000     500.00000000     500.00000000     500.00000000     500.00000000     500.00000000     500.00000000     500.00000000     500.00000000     500.00000000     500.00000000     500.00000000     500.00000000     500.00000000     500.00000000     500.00000000     500.00000000     500.00000000     500.00000000     500.00000000     500.00000000     500.00000000     500.00000000     500.00000000     500.00000000     500.00000000     500.00000000     500.00000000     500.00000000     500.00000000     500.00000000     500.00000000     500.00000000     500.00000000     500.00000000     500.00000000     500.00000000     500.00000000     500.00000000     500.00000000     500.00000000     500.00000000     500.00000000     500.00000000     500.00000000     500.00000000     500.00000000
    INTERNAL  FACTOR  1.0
         480.00000000     480.00000000     480.00000000     480.00000000     480.00000000     480.00000000     480.00000000     480.00000000     480.00000000     480.00000000     480.00000000     480.00000000     480.00000000     480.00000000     480.00000000     480.00000000     480.00000000     480.00000000     480.00000000     480.00000000     480.00000000     480.00000000     480.00000000     480.00000000     480.00000000     480.00000000     480.00000000     480.00000000     480.00000000     480.00000000     480.00000000     480.00000000     480.00000000     480.00000000     480.00000000     480.00000000     480.00000000     480.00000000     480.00000000     480.00000000     480.00000000     480.00000000     480.00000000     480.00000000     480.00000000     480.00000000     480.00000000     480.00000000     480.00000000     480.00000000
    INTERNAL  FACTOR  1.0
         460.00000000     460.00000000     460.00000000     460.00000000     460.00000000     460.00000000     460.00000000     460.00000000     460.00000000     460.00000000     460.00000000     460.00000000     460.00000000     460.00000000     460.00000000     460.00000000     460.00000000     460.00000000     460.00000000     460.00000000     460.00000000     460.00000000     460.00000000     460.00000000     460.00000000     460.00000000     460.00000000     460.00000000     460.00000000     460.00000000     460.00000000     460.00000000     460.00000000     460.00000000     460.00000000     460.00000000     460.00000000     460.00000000     460.00000000     460.00000000     460.00000000     460.00000000     460.00000000     460.00000000     460.00000000     460.00000000     460.00000000     460.00000000     460.00000000     460.00000000
    INTERNAL  FACTOR  1.0
         440.00000000     440.00000000     440.00000000     440.00000000     440.00000000     440.00000000     440.00000000     440.00000000     440.00000000     440.00000000     440.00000000     440.00000000     440.00000000     440.00000000     440.00000000     440.00000000     440.00000000     440.00000000     440.00000000     440.00000000     440.00000000     440.00000000     440.00000000     440.00000000     440.00000000     440.00000000     440.00000000     440.00000000     440.00000000     440.00000000     440.00000000     440.00000000     440.00000000     440.00000000     440.00000000     440.00000000     440.00000000     440.00000000     440.00000000     440.00000000     440.00000000     440.00000000     440.00000000     440.00000000     440.00000000     440.00000000     440.00000000     440.00000000     440.00000000     440.00000000
    INTERNAL  FACTOR  1.0
         420.00000000     420.00000000     420.00000000     420.00000000     420.00000000     420.00000000     420.00000000     420.00000000     420.00000000     420.00000000     420.00000000     420.00000000     420.00000000     420.00000000     420.00000000     420.00000000     420.00000000     420.00000000     420.00000000     420.00000000     420.00000000     420.00000000     420.00000000     420.00000000     420.00000000     420.00000000     420.00000000     420.00000000     420.00000000     420.00000000     420.00000000     420.00000000     420.00000000     420.00000000     420.00000000     420.00000000     420.00000000     420.00000000     420.00000000     420.00000000     420.00000000     420.00000000     420.00000000     420.00000000     420.00000000     420.00000000     420.00000000     420.00000000     420.00000000     420.00000000
    INTERNAL  FACTOR  1.0
         400.00000000     400.00000000     400.00000000     400.00000000     400.00000000     400.00000000     400.00000000     400.00000000     400.00000000     400.00000000     400.00000000     400.00000000     400.00000000     400.00000000     400.00000000     400.00000000     400.00000000     400.00000000     400.00000000     400.00000000     400.00000000     400.00000000     400.00000000     400.00000000     400.00000000     400.00000000     400.00000000     400.00000000     400.00000000     400.00000000     400.00000000     400.00000000     400.00000000     400.00000000     400.00000000     400.00000000     400.00000000     400.00000000     400.00000000     400.00000000     400.00000000     400.00000000     400.00000000     400.00000000     400.00000000     400.00000000     400.00000000     400.00000000     400.00000000     400.00000000
    INTERNAL  FACTOR  1.0
         380.00000000     380.00000000     380.00000000     380.00000000     380.00000000     380.00000000     380.00000000     380.00000000     380.00000000     380.00000000     380.00000000     380.00000000     380.00000000     380.00000000     380.00000000     380.00000000     380.00000000     380.00000000     380.00000000     380.00000000     380.00000000     380.00000000     380.00000000     380.00000000     380.00000000     380.00000000     380.00000000     380.00000000     380.00000000     380.00000000     380.00000000     380.00000000     380.00000000     380.00000000     380.00000000     380.00000000     380.00000000     380.00000000     380.00000000     380.00000000     380.00000000     380.00000000     380.00000000     380.00000000     380.00000000     380.00000000     380.00000000     380.00000000     380.00000000     380.00000000
    INTERNAL  FACTOR  1.0
         360.00000000     360.00000000     360.00000000     360.00000000     360.00000000     360.00000000     360.00000000     360.00000000     360.00000000     360.00000000     360.00000000     360.00000000     360.00000000     360.00000000     360.00000000     360.00000000     360.00000000     360.00000000     360.00000000     360.00000000     360.00000000     360.00000000     360.00000000     360.00000000     360.00000000     360.00000000     360.00000000     360.00000000     360.00000000     360.00000000     360.00000000     360.00000000     360.00000000     360.00000000     360.00000000     360.00000000     360.00000000     360.00000000     360.00000000     360.00000000     360.00000000     360.00000000     360.00000000     360.00000000     360.00000000     360.00000000     360.00000000     360.00000000     360.00000000     360.00000000
    INTERNAL  FACTOR  1.0