# File generated by Flopy version 3.3.6 on 09/09/2022 at 13:29:33.
BEGIN griddata
  strt
    CONSTANT    -500.00000000
END griddata

