# File generated by Flopy version 3.3.6 on 09/09/2022 at 13:29:33.
BEGIN options
  SAVE_FLOWS
END options

BEGIN packages
  DIS6  RL.dis  dis
  IC6  RL.ic  ic
  CHD6  RL.chd  chd_0
  NPF6  RL.npf  npf
  OC6  RL.oc  oc
END packages

