# File generated by Flopy version 3.3.6 on 09/09/2022 at 13:29:33.
BEGIN options
  BUDGET  FILEOUT  RL.cbb
  HEAD  FILEOUT  RL.hds
END options

BEGIN period  1
  SAVE  HEAD  ALL
  SAVE  BUDGET  ALL
  PRINT  HEAD  ALL
END period  1

