# File generated by Flopy version 3.3.6 on 09/09/2022 at 13:29:33.
BEGIN options
  PRINT_OPTION  all
  COMPLEXITY  moderate
END options

BEGIN nonlinear
  OUTER_HCLOSE       0.01000000
  OUTER_MAXIMUM  500
  UNDER_RELAXATION  simple
  UNDER_RELAXATION_GAMMA       0.25000000
END nonlinear

BEGIN linear
  INNER_HCLOSE       0.01000000
END linear

