# File generated by Flopy version 3.3.6 on 09/09/2022 at 13:29:34.
BEGIN options
END options

BEGIN dimensions
  MAXBOUND  162
END dimensions

BEGIN period  1
  1    -483.58556336
  2    -501.16850338
  3    -518.75144340
  4    -536.33438341
  5    -553.91732343
  6    -571.50026345
  7    -589.08320346
  8    -606.66614348
  9    -624.24908349
  10    -641.83202351
  11    -659.41496353
  12    -676.99790354
  13    -694.58084356
  14    -712.16378358
  15    -729.74672359
  16    -747.32966361
  17    -764.91260362
  18    -782.49554364
  19    -800.07848366
  20    -817.66142367
  21    -835.24436369
  22    -852.82730371
  23    -870.41024372
  24    -887.99318374
  25    -905.57612375
  26    -923.15906377
  27    -940.74200379
  28    -958.32494380
  29    -975.90788382
  30    -993.49082384
  31   -1011.07376385
  32   -1028.65670387
  33   -1046.23964388
  34   -1063.82258390
  35   -1081.40552392
  36   -1098.98846393
  37   -1116.57140395
  38   -1134.15434396
  39   -1151.73728398
  40   -1169.32022400
  41   -1186.90316401
  42   -1204.48610403
  43   -1222.06904405
  44   -1239.65198406
  45   -1257.23492408
  46   -1274.81786409
  47   -1292.40080411
  48   -1309.98374413
  49   -1327.56668414
  50   -1345.14962416
  51    -453.43618202
  100   -1340.71857299
  101    -423.28680067
  150   -1336.28752181
  151    -393.13741932
  200   -1331.85647064
  201    -362.98803798
  250   -1327.42541946
  251    -332.83865663
  300   -1322.99436829
  301    -302.68927528
  350   -1318.56331712
  351    -272.53989394
  400   -1314.13226594
  401    -242.39051259
  450   -1309.70121477
  451    -212.24113124
  500   -1305.27016359
  501    -182.09174990
  550   -1300.83911242
  551    -161.76842041
  600   -1293.37494802
  601    -151.27114279
  650   -1282.87767040
  651    -140.77386517
  700   -1272.38039278
  701    -130.27658755
  750   -1261.88311516
  751    -119.77930992
  800   -1251.38583754
  801    -109.28203230
  850   -1240.88855991
  851     -98.78475468
  900   -1230.39128229
  901     -88.28747706
  950   -1219.89400467
  951     -77.79019944
  1000   -1209.39672705
  1001     -67.29292182
  1050   -1198.89944943
  1051     -56.79564419
  1100   -1188.40217181
  1101     -49.14306214
  1150   -1167.89042467
  1151     -44.33517565
  1200   -1137.36420801
  1201     -39.52728917
  1250   -1106.83799135
  1251     -34.71940268
  1300   -1076.31177469
  1301     -29.91151620
  1350   -1045.78555803
  1351     -25.10362971
  1400   -1015.25934137
  1401     -20.29574322
  1450    -984.73312471
  1451     -15.48785674
  1500    -954.20690805
  1501     -10.67997025
  1550    -923.68069139
  1551      -5.87208377
  1600    -893.15447474
  1601      -1.06419728
  1602     -18.64713730
  1603     -36.23007731
  1604     -53.81301733
  1605     -71.39595735
  1606     -88.97889736
  1607    -106.56183738
  1608    -124.14477739
  1609    -141.72771741
  1610    -159.31065743
  1611    -176.89359744
  1612    -194.47653746
  1613    -212.05947748
  1614    -229.64241749
  1615    -247.22535751
  1616    -264.80829752
  1617    -282.39123754
  1618    -299.97417756
  1619    -317.55711757
  1620    -335.14005759
  1621    -352.72299761
  1622    -370.30593762
  1623    -387.88887764
  1624    -405.47181765
  1625    -423.05475767
  1626    -440.63769769
  1627    -458.22063770
  1628    -475.80357772
  1629    -493.38651774
  1630    -510.96945775
  1631    -528.55239777
  1632    -546.13533778
  1633    -563.71827780
  1634    -581.30121782
  1635    -598.88415783
  1636    -616.46709785
  1637    -634.05003787
  1638    -651.63297788
  1639    -669.21591790
  1640    -686.79885791
  1641    -704.38179793
  1642    -721.96473795
  1643    -739.54767796
  1644    -757.13061798
  1645    -774.71355799
  1646    -792.29649801
  1647    -809.87943803
  1648    -827.46237804
  1649    -845.04531806
  1650    -862.62825808
END period  1

