# File generated by Flopy version 3.3.6 on 09/09/2022 at 13:29:33.
BEGIN options
  VERTICAL_OFFSET_TOLERANCE       0.00000000
END options

BEGIN dimensions
  NODES  1650
  NJA  11220
  NVERT  102
END dimensions

BEGIN griddata
  top
    INTERNAL  FACTOR  1.0
      1000.00000000    1000.00000000    1000.00000000    1000.00000000    1000.00000000    1000.00000000    1000.00000000    1000.00000000    1000.00000000    1000.00000000    1000.00000000    1000.00000000    1000.00000000    1000.00000000    1000.00000000    1000.00000000    1000.00000000    1000.00000000    1000.00000000    1000.00000000    1000.00000000    1000.00000000    1000.00000000    1000.00000000    1000.00000000    1000.00000000    1000.00000000    1000.00000000    1000.00000000    1000.00000000    1000.00000000    1000.00000000    1000.00000000    1000.00000000    1000.00000000    1000.00000000    1000.00000000    1000.00000000    1000.00000000    1000.00000000    1000.00000000    1000.00000000    1000.00000000    1000.00000000    1000.00000000    1000.00000000    1000.00000000    1000.00000000    1000.00000000    1000.00000000
       939.70123731     940.75096507     941.80069283     942.85042059     943.90014835     944.94987612     945.99960388     947.04933164     948.09905940     949.14878717     950.19851493     951.24824269     952.29797045     953.34769821     954.39742598     955.44715374     956.49688150     957.54660926     958.59633703     959.64606479     960.69579255     961.74552031     962.79524807     963.84497584     964.89470360     965.94443136     966.99415912     968.04388688     969.09361465     970.14334241     971.19307017     972.24279793     973.29252570     974.34225346     975.39198122     976.44170898     977.49143674     978.54116451     979.59089227     980.64062003     981.69034779     982.74007555     983.78980332     984.83953108     985.88925884     986.93898660     987.98871437     989.03844213     990.08816989     991.13789765
       879.40247461     881.50193014     883.60138566     885.70084119     887.80029671     889.89975223     891.99920776     894.09866328     896.19811881     898.29757433     900.39702986     902.49648538     904.59594090     906.69539643     908.79485195     910.89430748     912.99376300     915.09321853     917.19267405     919.29212957     921.39158510     923.49104062     925.59049615     927.68995167     929.78940720     931.88886272     933.98831824     936.08777377     938.18722929     940.28668482     942.38614034     944.48559587     946.58505139     948.68450692     950.78396244     952.88341796     954.98287349     957.08232901     959.18178454     961.28124006     963.38069559     965.48015111     967.57960663     969.67906216     971.77851768     973.87797321     975.97742873     978.07688426     980.17633978     982.27579530
       819.10371192     822.25289520     825.40207849     828.55126178     831.70044506     834.84962835     837.99881164     841.14799492     844.29717821     847.44636150     850.59554478     853.74472807     856.89391136     860.04309464     863.19227793     866.34146122     869.49064450     872.63982779     875.78901108     878.93819436     882.08737765     885.23656093     888.38574422     891.53492751     894.68411079     897.83329408     900.98247737     904.13166065     907.28084394     910.43002723     913.57921051     916.72839380     919.87757709     923.02676037     926.17594366     929.32512695     932.47431023     935.62349352     938.77267681     941.92186009     945.07104338     948.22022666     951.36940995     954.51859324     957.66777652     960.81695981     963.96614310     967.11532638     970.26450967     973.41369296
       758.80494922     763.00386027     767.20277132     771.40168237     775.60059342     779.79950447     783.99841552     788.19732657     792.39623761     796.59514866     800.79405971     804.99297076     809.19188181     813.39079286     817.58970391     821.78861495     825.98752600     830.18643705     834.38534810     838.58425915     842.78317020     846.98208125     851.18099229     855.37990334     859.57881439     863.77772544     867.97663649     872.17554754     876.37445859     880.57336964     884.77228068     888.97119173     893.17010278     897.36901383     901.56792488     905.76683593     909.96574698     914.16465802     918.36356907     922.56248012     926.76139117     930.96030222     935.15921327     939.35812432     943.55703537     947.75594641     951.95485746     956.15376851     960.35267956     964.55159061
       698.50618653     703.75482534     709.00346415     714.25210296     719.50074177     724.74938058     729.99801940     735.24665821     740.49529702     745.74393583     750.99257464     756.24121345     761.48985226     766.73849107     771.98712988     777.23576869     782.48440750     787.73304631     792.98168513     798.23032394     803.47896275     808.72760156     813.97624037     819.22487918     824.47351799     829.72215680     834.97079561     840.21943442     845.46807323     850.71671204     855.96535086     861.21398967     866.46262848     871.71126729     876.95990610     882.20854491     887.45718372     892.70582253     897.95446134     903.20310015     908.45173896     913.70037777     918.94901659     924.19765540     929.44629421     934.69493302     939.94357183     945.19221064     950.44084945     955.68948826
       638.20742384     644.50579041     650.80415698     657.10252356     663.40089013     669.69925670     675.99762327     682.29598985     688.59435642     694.89272299     701.19108957     707.48945614     713.78782271     720.08618929     726.38455586     732.68292243     738.98128900     745.27965558     751.57802215     757.87638872     764.17475530     770.47312187     776.77148844     783.06985502     789.36822159     795.66658816     801.96495473     808.26332131     814.56168788     820.86005445     827.15842103     833.45678760     839.75515417     846.05352075     852.35188732     858.65025389     864.94862046     871.24698704     877.54535361     883.84372018     890.14208676     896.44045333     902.73881990     909.03718647     915.33555305     921.63391962     927.93228619     934.23065277     940.52901934     946.82738591
       577.90866114     585.25675548     592.60484981     599.95294415     607.30103848     614.64913282     621.99722715     629.34532149     636.69341582     644.04151016     651.38960449     658.73769883     666.08579316     673.43388750     680.78198184     688.13007617     695.47817051     702.82626484     710.17435918     717.52245351     724.87054785     732.21864218     739.56673652     746.91483085     754.26292519     761.61101952     768.95911386     776.30720819     783.65530253     791.00339686     798.35149120     805.69958553     813.04767987     820.39577420     827.74386854     835.09196287     842.44005721     849.78815154     857.13624588     864.48434021     871.83243455     879.18052888     886.52862322     893.87671755     901.22481189     908.57290622     915.92100056     923.26909489     930.61718923     937.96528357
       517.60989845     526.00772055     534.40554264     542.80336474     551.20118684     559.59900894     567.99683103     576.39465313     584.79247523     593.19029733     601.58811942     609.98594152     618.38376362     626.78158571     635.17940781     643.57722991     651.97505201     660.37287410     668.77069620     677.16851830     685.56634040     693.96416249     702.36198459     710.75980669     719.15762878     727.55545088     735.95327298     744.35109508     752.74891717     761.14673927     769.54456137     777.94238347     786.34020556     794.73802766     803.13584976     811.53367185     819.93149395     828.32931605     836.72713815     845.12496024     853.52278234     861.92060444     870.31842654     878.71624863     887.11407073     895.51189283     903.90971493     912.30753702     920.70535912     929.10318122
       457.31113576     466.75868561     476.20623547     485.65378533     495.10133519     504.54888505     513.99643491     523.44398477     532.89153463     542.33908449     551.78663435     561.23418421     570.68173407     580.12928393     589.57683379     599.02438365     608.47193351     617.91948337     627.36703323     636.81458309     646.26213294     655.70968280     665.15723266     674.60478252     684.05233238     693.49988224     702.94743210     712.39498196     721.84253182     731.29008168     740.73763154     750.18518140     759.63273126     769.08028112     778.52783098     787.97538084     797.42293070     806.87048056     816.31803042     825.76558027     835.21313013     844.66067999     854.10822985     863.55577971     873.00332957     882.45087943     891.89842929     901.34597915     910.79352901     920.24107887
       397.01237306     407.50965068     418.00692830     428.50420593     439.00148355     449.49876117     459.99603879     470.49331641     480.99059403     491.48787166     501.98514928     512.48242690     522.97970452     533.47698214     543.97425976     554.47153739     564.96881501     575.46609263     585.96337025     596.46064787     606.95792549     617.45520312     627.95248074     638.44975836     648.94703598     659.44431360     669.94159122     680.43886885     690.93614647     701.43342409     711.93070171     722.42797933     732.92525695     743.42253458     753.91981220     764.41708982     774.91436744     785.41164506     795.90892268     806.40620031     816.90347793     827.40075555     837.89803317     848.39531079     858.89258841     869.38986603     879.88714366     890.38442128     900.88169890     911.37897652
       336.71361037     348.26061575     359.80762114     371.35462652     382.90163190     394.44863729     405.99564267     417.54264805     429.08965344     440.63665882     452.18366421     463.73066959     475.27767497     486.82468036     498.37168574     509.91869112     521.46569651     533.01270189     544.55970728     556.10671266     567.65371804     579.20072343     590.74772881     602.29473419     613.84173958     625.38874496     636.93575035     648.48275573     660.02976111     671.57676650     683.12377188     694.67077727     706.21778265     717.76478803     729.31179342     740.85879880     752.40580418     763.95280957     775.49981495     787.04682034     798.59382572     810.14083110     821.68783649     833.23484187     844.78184725     856.32885264     867.87585802     879.42286341     890.96986879     902.51687417
       315.71905512     327.26606051     338.81306589     350.36007128     361.90707666     373.45408204     385.00108743     396.54809281     408.09509819     419.64210358     431.18910896     442.73611435     454.28311973     465.83012511     477.37713050     488.92413588     500.47114127     512.01814665     523.56515203     535.11215742     546.65916280     558.20616818     569.75317357     581.30017895     592.84718434     604.39418972     615.94119510     627.48820049     639.03520587     650.58221125     662.12921664     673.67622202     685.22322741     696.77023279     708.31723817     719.86424356     731.41124894     742.95825432     754.50525971     766.05226509     777.59927048     789.14627586     800.69328124     812.24028663     823.78729201     835.33429740     846.88130278     858.42830816     869.97531355     881.52231893
       294.72449988     306.27150527     317.81851065     329.36551603     340.91252142     352.45952680     364.00653218     375.55353757     387.10054295     398.64754834     410.19455372     421.74155910     433.28856449     444.83556987     456.38257525     467.92958064     479.47658602     491.02359141     502.57059679     514.11760217     525.66460756     537.21161294     548.75861832     560.30562371     571.85262909     583.39963448     594.94663986     606.49364524     618.04065063     629.58765601     641.13466140     652.68166678     664.22867216     675.77567755     687.32268293     698.86968831     710.41669370     721.96369908     733.51070447     745.05770985     756.60471523     768.15172062     779.69872600     791.24573138     802.79273677     814.33974215     825.88674754     837.43375292     848.98075830     860.52776369
       273.72994464     285.27695002     296.82395541     308.37096079     319.91796617     331.46497156     343.01197694     354.55898232     366.10598771     377.65299309     389.19999848     400.74700386     412.29400924     423.84101463     435.38802001     446.93502539     458.48203078     470.02903616     481.57604155     493.12304693     504.67005231     516.21705770     527.76406308     539.31106847     550.85807385     562.40507923     573.95208462     585.49909000     597.04609538     608.59310077     620.14010615     631.68711154     643.23411692     654.78112230     666.32812769     677.87513307     689.42213845     700.96914384     712.51614922     724.06315461     735.61015999     747.15716537     758.70417076     770.25117614     781.79818152     793.34518691     804.89219229     816.43919768     827.98620306     839.53320844
       252.73538939     264.28239478     275.82940016     287.37640555     298.92341093     310.47041631     322.01742170     333.56442708     345.11143247     356.65843785     368.20544323     379.75244862     391.29945400     402.84645938     414.39346477     425.94047015     437.48747554     449.03448092     460.58148630     472.12849169     483.67549707     495.22250245     506.76950784     518.31651322     529.86351861     541.41052399     552.95752937     564.50453476     576.05154014     587.59854552     599.14555091     610.69255629     622.23956168     633.78656706     645.33357244     656.88057783     668.42758321     679.97458860     691.52159398     703.06859936     714.61560475     726.16261013     737.70961551     749.25662090     760.80362628     772.35063167     783.89763705     795.44464243     806.99164782     818.53865320
       231.74083415     243.28783954     254.83484492     266.38185030     277.92885569     289.47586107     301.02286645     312.56987184     324.11687722     335.66388261     347.21088799     358.75789337     370.30489876     381.85190414     393.39890952     404.94591491     416.49292029     428.03992568     439.58693106     451.13393644     462.68094183     474.22794721     485.77495259     497.32195798     508.86896336     520.41596875     531.96297413     543.50997951     555.05698490     566.60399028     578.15099567     589.69800105     601.24500643     612.79201182     624.33901720     635.88602258     647.43302797     658.98003335     670.52703874     682.07404412     693.62104950     705.16805489     716.71506027     728.26206565     739.80907104     751.35607642     762.90308181     774.45008719     785.99709257     797.54409796
       210.74627891     222.29328429     233.84028968     245.38729506     256.93430044     268.48130583     280.02831121     291.57531659     303.12232198     314.66932736     326.21633275     337.76333813     349.31034351     360.85734890     372.40435428     383.95135967     395.49836505     407.04537043     418.59237582     430.13938120     441.68638658     453.23339197     464.78039735     476.32740274     487.87440812     499.42141350     510.96841889     522.51542427     534.06242965     545.60943504     557.15644042     568.70344581     580.25045119     591.79745657     603.34446196     614.89146734     626.43847272     637.98547811     649.53248349     661.07948888     672.62649426     684.17349964     695.72050503     707.26751041     718.81451580     730.36152118     741.90852656     753.45553195     765.00253733     776.54954271
       189.75172366     201.29872905     212.84573443     224.39273982     235.93974520     247.48675058     259.03375597     270.58076135     282.12776674     293.67477212     305.22177750     316.76878289     328.31578827     339.86279365     351.40979904     362.95680442     374.50380981     386.05081519     397.59782057     409.14482596     420.69183134     432.23883672     443.78584211     455.33284749     466.87985288     478.42685826     489.97386364     501.52086903     513.06787441     524.61487979     536.16188518     547.70889056     559.25589595     570.80290133     582.34990671     593.89691210     605.44391748     616.99092287     628.53792825     640.08493363     651.63193902     663.17894440     674.72594978     686.27295517     697.81996055     709.36696594     720.91397132     732.46097670     744.00798209     755.55498747
       168.75716842     180.30417381     191.85117919     203.39818457     214.94518996     226.49219534     238.03920072     249.58620611     261.13321149     272.68021688     284.22722226     295.77422764     307.32123303     318.86823841     330.41524379     341.96224918     353.50925456     365.05625995     376.60326533     388.15027071     399.69727610     411.24428148     422.79128687     434.33829225     445.88529763     457.43230302     468.97930840     480.52631378     492.07331917     503.62032455     515.16732994     526.71433532     538.26134070     549.80834609     561.35535147     572.90235685     584.44936224     595.99636762     607.54337301     619.09037839     630.63738377     642.18438916     653.73139454     665.27839992     676.82540531     688.37241069     699.91941608     711.46642146     723.01342684     734.56043223
       147.76261318     159.30961856     170.85662395     182.40362933     193.95063471     205.49764010     217.04464548     228.59165086     240.13865625     251.68566163     263.23266702     274.77967240     286.32667778     297.87368317     309.42068855     320.96769394     332.51469932     344.06170470     355.60871009     367.15571547     378.70272085     390.24972624     401.79673162     413.34373701     424.89074239     436.43774777     447.98475316     459.53175854     471.07876392     482.62576931     494.17277469     505.71978008     517.26678546     528.81379084     540.36079623     551.90780161     563.45480699     575.00181238     586.54881776     598.09582315     609.64282853     621.18983391     632.73683930     644.28384468     655.83085007     667.37785545     678.92486083     690.47186622     702.01887160     713.56587698
       126.76805794     138.31506332     149.86206870     161.40907409     172.95607947     184.50308485     196.05009024     207.59709562     219.14410101     230.69110639     242.23811177     253.78511716     265.33212254     276.87912792     288.42613331     299.97313869     311.52014408     323.06714946     334.61415484     346.16116023     357.70816561     369.25517099     380.80217638     392.34918176     403.89618715     415.44319253     426.99019791     438.53720330     450.08420868     461.63121407     473.17821945     484.72522483     496.27223022     507.81923560     519.36624098     530.91324637     542.46025175     554.00725714     565.55426252     577.10126790     588.64827329     600.19527867     611.74228405     623.28928944     634.83629482     646.38330021     657.93030559     669.47731097     681.02431636     692.57132174
       105.77350269     117.32050808     128.86751346     140.41451884     151.96152423     163.50852961     175.05553499     186.60254038     198.14954576     209.69655115     221.24355653     232.79056191     244.33756730     255.88457268     267.43157806     278.97858345     290.52558883     302.07259422     313.61959960     325.16660498     336.71361037     348.26061575     359.80762114     371.35462652     382.90163190     394.44863729     405.99564267     417.54264805     429.08965344     440.63665882     452.18366421     463.73066959     475.27767497     486.82468036     498.37168574     509.91869112     521.46569651     533.01270189     544.55970728     556.10671266     567.65371804     579.20072343     590.74772881     602.29473419     613.84173958     625.38874496     636.93575035     648.48275573     660.02976111     671.57676650
        96.15772972     106.65500734     117.15228496     127.64956258     138.14684021     148.64411783     159.14139545     169.63867307     180.13595069     190.63322831     201.13050594     211.62778356     222.12506118     232.62233880     243.11961642     253.61689404     264.11417167     274.61144929     285.10872691     295.60600453     306.10328215     316.60055977     327.09783740     337.59511502     348.09239264     358.58967026     369.08694788     379.58422550     390.08150313     400.57878075     411.07605837     421.57333599     432.07061361     442.56789123     453.06516886     463.56244648     474.05972410     484.55700172     495.05427934     505.55155696     516.04883459     526.54611221     537.04338983     547.54066745     558.03794507     568.53522269     579.03250031     589.52977794     600.02705556     610.52433318
        86.54195675      95.98950661     105.43705647     114.88460633     124.33215619     133.77970605     143.22725590     152.67480576     162.12235562     171.56990548     181.01745534     190.46500520     199.91255506     209.36010492     218.80765478     228.25520464     237.70275450     247.15030436     256.59785422     266.04540408     275.49295394     284.94050380     294.38805366     303.83560352     313.28315338     322.73070323     332.17825309     341.62580295     351.07335281     360.52090267     369.96845253     379.41600239     388.86355225     398.31110211     407.75865197     417.20620183     426.65375169     436.10130155     445.54885141     454.99640127     464.44395113     473.89150099     483.33905085     492.78660070     502.23415056     511.68170042     521.12925028     530.57680014     540.02435000     549.47189986
        76.92618378      85.32400587      93.72182797     102.11965007     110.51747217     118.91529426     127.31311636     135.71093846     144.10876055     152.50658265     160.90440475     169.30222685     177.70004894     186.09787104     194.49569314     202.89351524     211.29133733     219.68915943     228.08698153     236.48480362     244.88262572     253.28044782     261.67826992     270.07609201     278.47391411     286.87173621     295.26955831     303.66738040     312.06520250     320.46302460     328.86084670     337.25866879     345.65649089     354.05431299     362.45213508     370.84995718     379.24777928     387.64560138     396.04342347     404.44124557     412.83906767     421.23688977     429.63471186     438.03253396     446.43035606     454.82817815     463.22600025     471.62382235     480.02164445     488.41946654
        67.31041080      74.65850514      82.00659947      89.35469381      96.70278814     104.05088248     111.39897681     118.74707115     126.09516549     133.44325982     140.79135416     148.13944849     155.48754283     162.83563716     170.18373150     177.53182583     184.87992017     192.22801450     199.57610884     206.92420317     214.27229751     221.62039184     228.96848618     236.31658051     243.66467485     251.01276918     258.36086352     265.70895785     273.05705219     280.40514652     287.75324086     295.10133519     302.44942953     309.79752386     317.14561820     324.49371253     331.84180687     339.18990120     346.53799554     353.88608987     361.23418421     368.58227854     375.93037288     383.27846721     390.62656155     397.97465589     405.32275022     412.67084456     420.01893889     427.36703323
        57.69463783      63.99300440      70.29137098      76.58973755      82.88810412      89.18647070      95.48483727     101.78320384     108.08157042     114.37993699     120.67830356     126.97667013     133.27503671     139.57340328     145.87176985     152.17013643     158.46850300     164.76686957     171.06523615     177.36360272     183.66196929     189.96033586     196.25870244     202.55706901     208.85543558     215.15380216     221.45216873     227.75053530     234.04890188     240.34726845     246.64563502     252.94400159     259.24236817     265.54073474     271.83910131     278.13746789     284.43583446     290.73420103     297.03256761     303.33093418     309.62930075     315.92766732     322.22603390     328.52440047     334.82276704     341.12113362     347.41950019     353.71786676     360.01623333     366.31459991
        48.07886486      53.32750367      58.57614248      63.82478129      69.07342010      74.32205891      79.57069772      84.81933654      90.06797535      95.31661416     100.56525297     105.81389178     111.06253059     116.31116940     121.55980821     126.80844702     132.05708583     137.30572464     142.55436345     147.80300227     153.05164108     158.30027989     163.54891870     168.79755751     174.04619632     179.29483513     184.54347394     189.79211275     195.04075156     200.28939037     205.53802918     210.78666800     216.03530681     221.28394562     226.53258443     231.78122324     237.02986205     242.27850086     247.52713967     252.77577848     258.02441729     263.27305610     268.52169491     273.77033372     279.01897254     284.26761135     289.51625016     294.76488897     300.01352778     305.26216659
        38.46309189      42.66200294      46.86091399      51.05982503      55.25873608      59.45764713      63.65655818      67.85546923      72.05438028      76.25329133      80.45220237      84.65111342      88.85002447      93.04893552      97.24784657     101.44675762     105.64566867     109.84457972     114.04349076     118.24240181     122.44131286     126.64022391     130.83913496     135.03804601     139.23695706     143.43586810     147.63477915     151.83369020     156.03260125     160.23151230     164.43042335     168.62933440     172.82824544     177.02715649     181.22606754     185.42497859     189.62388964     193.82280069     198.02171174     202.22062279     206.41953383     210.61844488     214.81735593     219.01626698     223.21517803     227.41408908     231.61300013     235.81191117     240.01082222     244.20973327
        28.84731892      31.99650220      35.14568549      38.29486878      41.44405206      44.59323535      47.74241863      50.89160192      54.04078521      57.18996849      60.33915178      63.48833507      66.63751835      69.78670164      72.93588493      76.08506821      79.23425150      82.38343479      85.53261807      88.68180136      91.83098465      94.98016793      98.12935122     101.27853451     104.42771779     107.57690108     110.72608436     113.87526765     117.02445094     120.17363422     123.32281751     126.47200080     129.62118408     132.77036737     135.91955066     139.06873394     142.21791723     145.36710052     148.51628380     151.66546709     154.81465038     157.96383366     161.11301695     164.26220023     167.41138352     170.56056681     173.70975009     176.85893338     180.00811667     183.15729995
        19.23154594      21.33100147      23.43045699      25.52991252      27.62936804      29.72882357      31.82827909      33.92773461      36.02719014      38.12664566      40.22610119      42.32555671      44.42501224      46.52446776      48.62392328      50.72337881      52.82283433      54.92228986      57.02174538      59.12120091      61.22065643      63.32011195      65.41956748      67.51902300      69.61847853      71.71793405      73.81738958      75.91684510      78.01630063      80.11575615      82.21521167      84.31466720      86.41412272      88.51357825      90.61303377      92.71248930      94.81194482      96.91140034      99.01085587     101.11031139     103.20976692     105.30922244     107.40867797     109.50813349     111.60758901     113.70704454     115.80650006     117.90595559     120.00541111     122.10486664
         9.61577297      10.66550073      11.71522850      12.76495626      13.81468402      14.86441178      15.91413954      16.96386731      18.01359507      19.06332283      20.11305059      21.16277836      22.21250612      23.26223388      24.31196164      25.36168940      26.41141717      27.46114493      28.51087269      29.56060045      30.61032822      31.66005598      32.70978374      33.75951150      34.80923926      35.85896703      36.90869479      37.95842255      39.00815031      40.05787807      41.10760584      42.15733360      43.20706136      44.25678912      45.30651689      46.35624465      47.40597241      48.45570017      49.50542793      50.55515570      51.60488346      52.65461122      53.70433898      54.75406674      55.80379451      56.85352227      57.90325003      58.95297779      60.00270556      61.05243332
  bot
    INTERNAL  FACTOR  1.0
       939.70123731     940.75096507     941.80069283     942.85042059     943.90014835     944.94987612     945.99960388     947.04933164     948.09905940     949.14878717     950.19851493     951.24824269     952.29797045     953.34769821     954.39742598     955.44715374     956.49688150     957.54660926     958.59633703     959.64606479     960.69579255     961.74552031     962.79524807     963.84497584     964.89470360     965.94443136     966.99415912     968.04388688     969.09361465     970.14334241     971.19307017     972.24279793     973.29252570     974.34225346     975.39198122     976.44170898     977.49143674     978.54116451     979.59089227     980.64062003     981.69034779     982.74007555     983.78980332     984.83953108     985.88925884     986.93898660     987.98871437     989.03844213     990.08816989     991.13789765