# File generated by Flopy version 3.3.6 on 09/09/2022 at 13:29:33.
BEGIN options
  SAVE_FLOWS
END options

BEGIN packages
  DISU6  VO.disu  disu
  IC6  VO.ic  ic
  CHD6  VO.chd  chd_0
  NPF6  VO.npf  npf
  OC6  VO.oc  oc
END packages

