# File generated by Flopy version 3.3.6 on 09/09/2022 at 13:29:34.
BEGIN options
  SAVE_FLOWS
  XT3D
  SAVE_SPECIFIC_DISCHARGE
END options

BEGIN griddata
  icelltype
    CONSTANT  0
  k
    INTERNAL  FACTOR  1.0
    1.00000000E-06  1.00000000E-06  1.00000000E-06  1.00000000E-06  1.00000000E-06  1.00000000E-06  1.00000000E-06  1.00000000E-06  1.00000000E-06  1.00000000E-06  1.00000000E-06  1.00000000E-06  1.00000000E-06  1.00000000E-06  1.00000000E-06  1.00000000E-06  1.00000000E-06  1.00000000E-06  1.00000000E-06  1.00000000E-06  1.00000000E-06  1.00000000E-06  1.00000000E-06  1.00000000E-06  1.00000000E-06  1.00000000E-06  1.00000000E-06  1.00000000E-06  1.00000000E-06  1.00000000E-06  1.00000000E-06  1.00000000E-06  1.00000000E-06  1.00000000E-06  1.00000000E-06  1.00000000E-06  1.00000000E-06  1.00000000E-06  1.00000000E-06  1.00000000E-06  1.00000000E-06  1.00000000E-06  1.00000000E-06  1.00000000E-06  1.00000000E-06  1.00000000E-06  1.00000000E-06  1.00000000E-06  1.00000000E-06  1.00000000E-06
    1.00000000E-06  1.00000000E-06  1.00000000E-06  1.00000000E-06  1.00000000E-06  1.00000000E-06  1.00000000E-06  1.00000000E-06  1.00000000E-06  1.00000000E-06  1.00000000E-06  1.00000000E-06  1.00000000E-06  1.00000000E-06  1.00000000E-06  1.00000000E-06  1.00000000E-06  1.00000000E-06  1.00000000E-06  1.00000000E-06  1.00000000E-06  1.00000000E-06  1.00000000E-06  1.00000000E-06  1.00000000E-06  1.00000000E-06  1.00000000E-06  1.00000000E-06  1.00000000E-06  1.00000000E-06  1.00000000E-06  1.00000000E-06  1.00000000E-06  1.00000000E-06  1.00000000E-06  1.00000000E-06  1.00000000E-06  1.00000000E-06  1.00000000E-06  1.00000000E-06  1.00000000E-06  1.00000000E-06  1.00000000E-06  1.00000000E-06  1.00000000E-06  1.00000000E-06  1.00000000E-06  1.00000000E-06  1.00000000E-06  1.00000000E-06
    1.00000000E-06  1.00000000E-06  1.00000000E-06  1.00000000E-06  1.00000000E-06  1.00000000E-06  1.00000000E-06  1.00000000E-06  1.00000000E-06  1.00000000E-06  1.00000000E-06  1.00000000E-06  1.00000000E-06  1.00000000E-06  1.00000000E-06  1.00000000E-06  1.00000000E-06  1.00000000E-06  1.00000000E-06  1.00000000E-06  1.00000000E-06  1.00000000E-06  1.00000000E-06  1.00000000E-06  1.00000000E-06  1.00000000E-06  1.00000000E-06  1.00000000E-06  1.00000000E-06  1.00000000E-06  1.00000000E-06  1.00000000E-06  1.00000000E-06  1.00000000E-06  1.00000000E-06  1.00000000E-06  1.00000000E-06  1.00000000E-06  1.00000000E-06  1.00000000E-06  1.00000000E-06  1.00000000E-06  1.00000000E-06  1.00000000E-06  1.00000000E-06  1.00000000E-06  1.00000000E-06  1.00000000E-06  1.00000000E-06  1.00000000E-06
    1.00000000E-06  1.00000000E-06  1.00000000E-06  1.00000000E-06  1.00000000E-06  1.00000000E-06  1.00000000E-06  1.00000000E-06  1.00000000E-06  1.00000000E-06  1.00000000E-06  1.00000000E-06  1.00000000E-06  1.00000000E-06  1.00000000E-06  1.00000000E-06  1.00000000E-06  1.00000000E-06  1.00000000E-06  1.00000000E-06  1.00000000E-06  1.00000000E-06  1.00000000E-06  1.00000000E-06  1.00000000E-06  1.00000000E-06  1.00000000E-06  1.00000000E-06  1.00000000E-06  1.00000000E-06  1.00000000E-06  1.00000000E-06  1.00000000E-06  1.00000000E-06  1.00000000E-06  1.00000000E-06  1.00000000E-06  1.00000000E-06  1.00000000E-06  1.00000000E-06  1.00000000E-06  1.00000000E-06  1.00000000E-06  1.00000000E-06  1.00000000E-06  1.00000000E-06  1.00000000E-06  1.00000000E-06  1.00000000E-06  1.00000000E-06
    1.00000000E-06  1.00000000E-06  1.00000000E-06  1.00000000E-06  1.00000000E-06  1.00000000E-06  1.00000000E-06  1.00000000E-06  1.00000000E-06  1.00000000E-06  1.00000000E-06  1.00000000E-06  1.00000000E-06  1.00000000E-06  1.00000000E-06  1.00000000E-06  1.00000000E-06  1.00000000E-06  1.00000000E-06  1.00000000E-06  1.00000000E-06  1.00000000E-06  1.00000000E-06  1.00000000E-06  1.00000000E-06  1.00000000E-06  1.00000000E-06  1.00000000E-06  1.00000000E-06  1.00000000E-06  1.00000000E-06  1.00000000E-06  1.00000000E-06  1.00000000E-06  1.00000000E-06  1.00000000E-06  1.00000000E-06  1.00000000E-06  1.00000000E-06  1.00000000E-06  1.00000000E-06  1.00000000E-06  1.00000000E-06  1.00000000E-06  1.00000000E-06  1.00000000E-06  1.00000000E-06  1.00000000E-06  1.00000000E-06  1.00000000E-06
    1.00000000E-06  1.00000000E-06  1.00000000E-06  1.00000000E-06  1.00000000E-06  1.00000000E-06  1.00000000E-06  1.00000000E-06  1.00000000E-06  1.00000000E-06  1.00000000E-06  1.00000000E-06  1.00000000E-06  1.00000000E-06  1.00000000E-06  1.00000000E-06  1.00000000E-06  1.00000000E-06  1.00000000E-06  1.00000000E-06  1.00000000E-06  1.00000000E-06  1.00000000E-06  1.00000000E-06  1.00000000E-06  1.00000000E-06  1.00000000E-06  1.00000000E-06  1.00000000E-06  1.00000000E-06  1.00000000E-06  1.00000000E-06  1.00000000E-06  1.00000000E-06  1.00000000E-06  1.00000000E-06  1.00000000E-06  1.00000000E-06  1.00000000E-06  1.00000000E-06  1.00000000E-06  1.00000000E-06  1.00000000E-06  1.00000000E-06  1.00000000E-06  1.00000000E-06  1.00000000E-06  1.00000000E-06  1.00000000E-06  1.00000000E-06
    1.00000000E-06  1.00000000E-06  1.00000000E-06  1.00000000E-06  1.00000000E-06  1.00000000E-06  1.00000000E-06  1.00000000E-06  1.00000000E-06  1.00000000E-06  1.00000000E-06  1.00000000E-06  1.00000000E-06  1.00000000E-06  1.00000000E-06  1.00000000E-06  1.00000000E-06  1.00000000E-06  1.00000000E-06  1.00000000E-06  1.00000000E-06  1.00000000E-06  1.00000000E-06  1.00000000E-06  1.00000000E-06  1.00000000E-06  1.00000000E-06  1.00000000E-06  1.00000000E-06  1.00000000E-06  1.00000000E-06  1.00000000E-06  1.00000000E-06  1.00000000E-06  1.00000000E-06  1.00000000E-06  1.00000000E-06  1.00000000E-06  1.00000000E-06  1.00000000E-06  1.00000000E-06  1.00000000E-06  1.00000000E-06  1.00000000E-06  1.00000000E-06  1.00000000E-06  1.00000000E-06  1.00000000E-06  1.00000000E-06  1.00000000E-06
    1.00000000E-06  1.00000000E-06  1.00000000E-06  1.00000000E-06  1.00000000E-06  1.00000000E-06  1.00000000E-06  1.00000000E-06  1.00000000E-06  1.00000000E-06  1.00000000E-06  1.00000000E-06  1.00000000E-06  1.00000000E-06  1.00000000E-06  1.00000000E-06  1.00000000E-06  1.00000000E-06  1.00000000E-06  1.00000000E-06  1.00000000E-06  1.00000000E-06  1.00000000E-06  1.00000000E-06  1.00000000E-06  1.00000000E-06  1.00000000E-06  1.00000000E-06  1.00000000E-06  1.00000000E-06  1.00000000E-06  1.00000000E-06  1.00000000E-06  1.00000000E-06  1.00000000E-06  1.00000000E-06  1.00000000E-06  1.00000000E-06  1.00000000E-06  1.00000000E-06  1.00000000E-06  1.00000000E-06  1.00000000E-06  1.00000000E-06  1.00000000E-06  1.00000000E-06  1.00000000E-06  1.00000000E-06  1.00000000E-06  1.00000000E-06
    1.00000000E-06  1.00000000E-06  1.00000000E-06  1.00000000E-06  1.00000000E-06  1.00000000E-06  1.00000000E-06  1.00000000E-06  1.00000000E-06  1.00000000E-06  1.00000000E-06  1.00000000E-06  1.00000000E-06  1.00000000E-06  1.00000000E-06  1.00000000E-06  1.00000000E-06  1.00000000E-06  1.00000000E-06  1.00000000E-06  1.00000000E-06  1.00000000E-06  1.00000000E-06  1.00000000E-06  1.00000000E-06  1.00000000E-06  1.00000000E-06  1.00000000E-06  1.00000000E-06  1.00000000E-06  1.00000000E-06  1.00000000E-06  1.00000000E-06  1.00000000E-06  1.00000000E-06  1.00000000E-06  1.00000000E-06  1.00000000E-06  1.00000000E-06  1.00000000E-06  1.00000000E-06  1.00000000E-06  1.00000000E-06  1.00000000E-06  1.00000000E-06  1.00000000E-06  1.00000000E-06  1.00000000E-06  1.00000000E-06  1.00000000E-06
    1.00000000E-06  1.00000000E-06  1.00000000E-06  1.00000000E-06  1.00000000E-06  1.00000000E-06  1.00000000E-06  1.00000000E-06  1.00000000E-06  1.00000000E-06  1.00000000E-06  1.00000000E-06  1.00000000E-06  1.00000000E-06  1.00000000E-06  1.00000000E-06  1.00000000E-06  1.00000000E-06  1.00000000E-06  1.00000000E-06  1.00000000E-06  1.00000000E-06  1.00000000E-06  1.00000000E-06  1.00000000E-06  1.00000000E-06  1.00000000E-06  1.00000000E-06  1.00000000E-06  1.00000000E-06  1.00000000E-06  1.00000000E-06  1.00000000E-06  1.00000000E-06  1.00000000E-06  1.00000000E-06  1.00000000E-06  1.00000000E-06  1.00000000E-06  1.00000000E-06  1.00000000E-06  1.00000000E-06  1.00000000E-06  1.00000000E-06  1.00000000E-06  1.00000000E-06  1.00000000E-06  1.00000000E-06  1.00000000E-06  1.00000000E-06
    1.00000000E-06  1.00000000E-06  1.00000000E-06  1.00000000E-06  1.00000000E-06  1.00000000E-06  1.00000000E-06  1.00000000E-06  1.00000000E-06  1.00000000E-06  1.00000000E-06  1.00000000E-06  1.00000000E-06  1.00000000E-06  1.00000000E-06  1.00000000E-06  1.00000000E-06  1.00000000E-06  1.00000000E-06  1.00000000E-06  1.00000000E-06  1.00000000E-06  1.00000000E-06  1.00000000E-06  1.00000000E-06  1.00000000E-06  1.00000000E-06  1.00000000E-06  1.00000000E-06  1.00000000E-06  1.00000000E-06  1.00000000E-06  1.00000000E-06  1.00000000E-06  1.00000000E-06  1.00000000E-06  1.00000000E-06  1.00000000E-06  1.00000000E-06  1.00000000E-06  1.00000000E-06  1.00000000E-06  1.00000000E-06  1.00000000E-06  1.00000000E-06  1.00000000E-06  1.00000000E-06  1.00000000E-06  1.00000000E-06  1.00000000E-06
         1.00000000       1.00000000       1.00000000       1.00000000       1.00000000       1.00000000       1.00000000       1.00000000       1.00000000       1.00000000       1.00000000       1.00000000       1.00000000       1.00000000       1.00000000       1.00000000       1.00000000       1.00000000       1.00000000       1.00000000       1.00000000       1.00000000       1.00000000       1.00000000       1.00000000       1.00000000       1.00000000       1.00000000       1.00000000       1.00000000       1.00000000       1.00000000       1.00000000       1.00000000       1.00000000       1.00000000       1.00000000       1.00000000       1.00000000       1.00000000       1.00000000       1.00000000       1.00000000       1.00000000       1.00000000       1.00000000       1.00000000       1.00000000       1.00000000       1.00000000
         1.00000000       1.00000000       1.00000000       1.00000000       1.00000000       1.00000000       1.00000000       1.00000000       1.00000000       1.00000000       1.00000000       1.00000000       1.00000000       1.00000000       1.00000000       1.00000000       1.00000000       1.00000000       1.00000000       1.00000000       1.00000000       1.00000000       1.00000000       1.00000000       1.00000000       1.00000000       1.00000000       1.00000000       1.00000000       1.00000000       1.00000000       1.00000000       1.00000000       1.00000000       1.00000000       1.00000000       1.00000000       1.00000000       1.00000000       1.00000000       1.00000000       1.00000000       1.00000000       1.00000000       1.00000000       1.00000000       1.00000000       1.00000000       1.00000000       1.00000000
         1.00000000       1.00000000       1.00000000       1.00000000       1.00000000       1.00000000       1.00000000       1.00000000       1.00000000       1.00000000       1.00000000       1.00000000       1.00000000       1.00000000       1.00000000       1.00000000       1.00000000       1.00000000       1.00000000       1.00000000       1.00000000       1.00000000       1.00000000       1.00000000       1.00000000       1.00000000       1.00000000       1.00000000       1.00000000       1.00000000       1.00000000       1.00000000       1.00000000       1.00000000       1.00000000       1.00000000       1.00000000       1.00000000       1.00000000       1.00000000       1.00000000       1.00000000       1.00000000       1.00000000       1.00000000       1.00000000       1.00000000       1.00000000       1.00000000       1.00000000
         1.00000000       1.00000000       1.00000000       1.00000000       1.00000000       1.00000000       1.00000000       1.00000000       1.00000000       1.00000000       1.00000000       1.00000000       1.00000000       1.00000000       1.00000000       1.00000000       1.00000000       1.00000000       1.00000000       1.00000000       1.00000000       1.00000000       1.00000000       1.00000000       1.00000000       1.00000000       1.00000000       1.00000000       1.00000000       1.00000000       1.00000000       1.00000000       1.00000000       1.00000000       1.00000000       1.00000000       1.00000000       1.00000000       1.00000000       1.00000000       1.00000000       1.00000000       1.00000000       1.00000000       1.00000000       1.00000000       1.00000000       1.00000000       1.00000000       1.00000000
         1.00000000       1.00000000       1.00000000       1.00000000       1.00000000       1.00000000       1.00000000       1.00000000       1.00000000       1.00000000       1.00000000       1.00000000       1.00000000       1.00000000       1.00000000       1.00000000       1.00000000       1.00000000       1.00000000       1.00000000       1.00000000       1.00000000       1.00000000       1.00000000       1.00000000       1.00000000       1.00000000       1.00000000       1.00000000       1.00000000       1.00000000       1.00000000       1.00000000       1.00000000       1.00000000       1.00000000       1.00000000       1.00000000       1.00000000       1.00000000       1.00000000       1.00000000       1.00000000       1.00000000       1.00000000       1.00000000       1.00000000       1.00000000       1.00000000       1.00000000
         1.00000000       1.00000000       1.00000000       1.00000000       1.00000000       1.00000000       1.00000000       1.00000000       1.00000000       1.00000000       1.00000000       1.00000000       1.00000000       1.00000000       1.00000000       1.00000000       1.00000000       1.00000000       1.00000000       1.00000000       1.00000000       1.00000000       1.00000000       1.00000000       1.00000000       1.00000000       1.00000000       1.00000000       1.00000000       1.00000000       1.00000000       1.00000000       1.00000000       1.00000000       1.00000000       1.00000000       1.00000000       1.00000000       1.00000000       1.00000000       1.00000000       1.00000000       1.00000000       1.00000000       1.00000000       1.00000000       1.00000000       1.00000000       1.00000000       1.00000000
         1.00000000       1.00000000       1.00000000       1.00000000       1.00000000       1.00000000       1.00000000       1.00000000       1.00000000       1.00000000       1.00000000       1.00000000       1.00000000       1.00000000       1.00000000       1.00000000       1.00000000       1.00000000       1.00000000       1.00000000       1.00000000       1.00000000       1.00000000       1.00000000       1.00000000       1.00000000       1.00000000       1.00000000       1.00000000       1.00000000       1.00000000       1.00000000       1.00000000       1.00000000       1.00000000       1.00000000       1.00000000       1.00000000       1.00000000       1.00000000       1.00000000       1.00000000       1.00000000       1.00000000       1.00000000       1.00000000       1.00000000       1.00000000       1.00000000       1.00000000
         1.00000000       1.00000000       1.00000000       1.00000000       1.00000000       1.00000000       1.00000000       1.00000000       1.00000000       1.00000000       1.00000000       1.00000000       1.00000000       1.00000000       1.00000000       1.00000000       1.00000000       1.00000000       1.00000000       1.00000000       1.00000000       1.00000000       1.00000000       1.00000000       1.00000000       1.00000000       1.00000000       1.00000000       1.00000000       1.00000000       1.00000000       1.00000000       1.00000000       1.00000000       1.00000000       1.00000000       1.00000000       1.00000000       1.00000000       1.00000000       1.00000000       1.00000000       1.00000000       1.00000000       1.00000000       1.00000000       1.00000000       1.00000000       1.00000000       1.00000000
         1.00000000       1.00000000       1.00000000       1.00000000       1.00000000       1.00000000       1.00000000       1.00000000       1.00000000       1.00000000       1.00000000       1.00000000       1.00000000       1.00000000       1.00000000       1.00000000       1.00000000       1.00000000       1.00000000       1.00000000       1.00000000       1.00000000       1.00000000       1.00000000       1.00000000       1.00000000       1.00000000       1.00000000       1.00000000       1.00000000       1.00000000       1.00000000       1.00000000       1.00000000       1.00000000       1.00000000       1.00000000       1.00000000       1.00000000       1.00000000       1.00000000       1.00000000       1.00000000       1.00000000       1.00000000       1.00000000       1.00000000       1.00000000       1.00000000       1.00000000
         1.00000000       1.00000000       1.00000000       1.00000000       1.00000000       1.00000000       1.00000000       1.00000000       1.00000000       1.00000000       1.00000000       1.00000000       1.00000000       1.00000000       1.00000000       1.00000000       1.00000000       1.00000000       1.00000000       1.00000000       1.00000000       1.00000000       1.00000000       1.00000000       1.00000000       1.00000000       1.00000000       1.00000000       1.00000000       1.00000000       1.00000000       1.00000000       1.00000000       1.00000000       1.00000000       1.00000000       1.00000000       1.00000000       1.00000000       1.00000000       1.00000000       1.00000000       1.00000000       1.00000000       1.00000000       1.00000000       1.00000000       1.00000000       1.00000000       1.00000000
         1.00000000       1.00000000       1.00000000       1.00000000       1.00000000       1.00000000       1.00000000       1.00000000       1.00000000       1.00000000       1.00000000       1.00000000       1.00000000       1.00000000       1.00000000       1.00000000       1.00000000       1.00000000       1.00000000       1.00000000       1.00000000       1.00000000       1.00000000       1.00000000       1.00000000       1.00000000       1.00000000       1.00000000       1.00000000       1.00000000       1.00000000       1.00000000       1.00000000       1.00000000       1.00000000       1.00000000       1.00000000       1.00000000       1.00000000       1.00000000       1.00000000       1.00000000       1.00000000       1.00000000       1.00000000       1.00000000       1.00000000       1.00000000       1.00000000       1.00000000
    1.00000000E-06  1.00000000E-06  1.00000000E-06  1.00000000E-06  1.00000000E-06  1.00000000E-06  1.00000000E-06  1.00000000E-06  1.00000000E-06  1.00000000E-06  1.00000000E-06  1.00000000E-06  1.00000000E-06  1.00000000E-06  1.00000000E-06  1.00000000E-06  1.00000000E-06  1.00000000E-06  1.00000000E-06  1.00000000E-06  1.00000000E-06  1.00000000E-06  1.00000000E-06  1.00000000E-06  1.00000000E-06  1.00000000E-06  1.00000000E-06  1.00000000E-06  1.00000000E-06  1.00000000E-06  1.00000000E-06  1.00000000E-06  1.00000000E-06  1.00000000E-06  1.00000000E-06  1.00000000E-06  1.00000000E-06  1.00000000E-06  1.00000000E-06  1.00000000E-06  1.00000000E-06  1.00000000E-06  1.00000000E-06  1.00000000E-06  1.00000000E-06  1.00000000E-06  1.00000000E-06  1.00000000E-06  1.00000000E-06  1.00000000E-06
    1.00000000E-06  1.00000000E-06  1.00000000E-06  1.00000000E-06  1.00000000E-06  1.00000000E-06  1.00000000E-06  1.00000000E-06  1.00000000E-06  1.00000000E-06  1.00000000E-06  1.00000000E-06  1.00000000E-06  1.00000000E-06  1.00000000E-06  1.00000000E-06  1.00000000E-06  1.00000000E-06  1.00000000E-06  1.00000000E-06  1.00000000E-06  1.00000000E-06  1.00000000E-06  1.00000000E-06  1.00000000E-06  1.00000000E-06  1.00000000E-06  1.00000000E-06  1.00000000E-06  1.00000000E-06  1.00000000E-06  1.00000000E-06  1.00000000E-06  1.00000000E-06  1.00000000E-06  1.00000000E-06  1.00000000E-06  1.00000000E-06  1.00000000E-06  1.00000000E-06  1.00000000E-06  1.00000000E-06  1.00000000E-06  1.00000000E-06  1.00000000E-06  1.00000000E-06  1.00000000E-06  1.00000000E-06  1.00000000E-06  1.00000000E-06
    1.00000000E-06  1.00000000E-06  1.00000000E-06  1.00000000E-06  1.00000000E-06  1.00000000E-06  1.00000000E-06  1.00000000E-06  1.00000000E-06  1.00000000E-06  1.00000000E-06  1.00000000E-06  1.00000000E-06  1.00000000E-06  1.00000000E-06  1.00000000E-06  1.00000000E-06  1.00000000E-06  1.00000000E-06  1.00000000E-06  1.00000000E-06  1.00000000E-06  1.00000000E-06  1.00000000E-06  1.00000000E-06  1.00000000E-06  1.00000000E-06  1.00000000E-06  1.00000000E-06  1.00000000E-06  1.00000000E-06  1.00000000E-06  1.00000000E-06  1.00000000E-06  1.00000000E-06  1.00000000E-06  1.00000000E-06  1.00000000E-06  1.00000000E-06  1.00000000E-06  1.00000000E-06  1.00000000E-06  1.00000000E-06  1.00000000E-06  1.00000000E-06  1.00000000E-06  1.00000000E-06  1.00000000E-06  1.00000000E-06  1.00000000E-06
    1.00000000E-06  1.00000000E-06  1.00000000E-06  1.00000000E-06  1.00000000E-06  1.00000000E-06  1.00000000E-06  1.00000000E-06  1.00000000E-06  1.00000000E-06  1.00000000E-06  1.00000000E-06  1.00000000E-06  1.00000000E-06  1.00000000E-06  1.00000000E-06  1.00000000E-06  1.00000000E-06  1.00000000E-06  1.00000000E-06  1.00000000E-06  1.00000000E-06  1.00000000E-06  1.00000000E-06  1.00000000E-06  1.00000000E-06  1.00000000E-06  1.00000000E-06  1.00000000E-06  1.00000000E-06  1.00000000E-06  1.00000000E-06  1.00000000E-06  1.00000000E-06  1.00000000E-06  1.00000000E-06  1.00000000E-06  1.00000000E-06  1.00000000E-06  1.00000000E-06  1.00000000E-06  1.00000000E-06  1.00000000E-06  1.00000000E-06  1.00000000E-06  1.00000000E-06  1.00000000E-06  1.00000000E-06  1.00000000E-06  1.00000000E-06
    1.00000000E-06  1.00000000E-06  1.00000000E-06  1.00000000E-06  1.00000000E-06  1.00000000E-06  1.00000000E-06  1.00000000E-06  1.00000000E-06  1.00000000E-06  1.00000000E-06  1.00000000E-06  1.00000000E-06  1.00000000E-06  1.00000000E-06  1.00000000E-06  1.00000000E-06  1.00000000E-06  1.00000000E-06  1.00000000E-06  1.00000000E-06  1.00000000E-06  1.00000000E-06  1.00000000E-06  1.00000000E-06  1.00000000E-06  1.00000000E-06  1.00000000E-06  1.00000000E-06  1.00000000E-06  1.00000000E-06  1.00000000E-06  1.00000000E-06  1.00000000E-06  1.00000000E-06  1.00000000E-06  1.00000000E-06  1.00000000E-06  1.00000000E-06  1.00000000E-06  1.00000000E-06  1.00000000E-06  1.00000000E-06  1.00000000E-06  1.00000000E-06  1.00000000E-06  1.00000000E-06  1.00000000E-06  1.00000000E-06  1.00000000E-06
    1.00000000E-06  1.00000000E-06  1.00000000E-06  1.00000000E-06  1.00000000E-06  1.00000000E-06  1.00000000E-06  1.00000000E-06  1.00000000E-06  1.00000000E-06  1.00000000E-06  1.00000000E-06  1.00000000E-06  1.00000000E-06  1.00000000E-06  1.00000000E-06  1.00000000E-06  1.00000000E-06  1.00000000E-06  1.00000000E-06  1.00000000E-06  1.00000000E-06  1.00000000E-06  1.00000000E-06  1.00000000E-06  1.00000000E-06  1.00000000E-06  1.00000000E-06  1.00000000E-06  1.00000000E-06  1.00000000E-06  1.00000000E-06  1.00000000E-06  1.00000000E-06  1.00000000E-06  1.00000000E-06  1.00000000E-06  1.00000000E-06  1.00000000E-06  1.00000000E-06  1.00000000E-06  1.00000000E-06  1.00000000E-06  1.00000000E-06  1.00000000E-06  1.00000000E-06  1.00000000E-06  1.00000000E-06  1.00000000E-06  1.00000000E-06
    1.00000000E-06  1.00000000E-06  1.00000000E-06  1.00000000E-06  1.00000000E-06  1.00000000E-06  1.00000000E-06  1.00000000E-06  1.00000000E-06  1.00000000E-06  1.00000000E-06  1.00000000E-06  1.00000000E-06  1.00000000E-06  1.00000000E-06  1.00000000E-06  1.00000000E-06  1.00000000E-06  1.00000000E-06  1.00000000E-06  1.00000000E-06  1.00000000E-06  1.00000000E-06  1.00000000E-06  1.00000000E-06  1.00000000E-06  1.00000000E-06  1.00000000E-06  1.00000000E-06  1.00000000E-06  1.00000000E-06  1.00000000E-06  1.00000000E-06  1.00000000E-06  1.00000000E-06  1.00000000E-06  1.00000000E-06  1.00000000E-06  1.00000000E-06  1.00000000E-06  1.00000000E-06  1.00000000E-06  1.00000000E-06  1.00000000E-06  1.00000000E-06  1.00000000E-06  1.00000000E-06  1.00000000E-06  1.00000000E-06  1.00000000E-06
    1.00000000E-06  1.00000000E-06  1.00000000E-06  1.00000000E-06  1.00000000E-06  1.00000000E-06  1.00000000E-06  1.00000000E-06  1.00000000E-06  1.00000000E-06  1.00000000E-06  1.00000000E-06  1.00000000E-06  1.00000000E-06  1.00000000E-06  1.00000000E-06  1.00000000E-06  1.00000000E-06  1.00000000E-06  1.00000000E-06  1.00000000E-06  1.00000000E-06  1.00000000E-06  1.00000000E-06  1.00000000E-06  1.00000000E-06  1.00000000E-06  1.00000000E-06  1.00000000E-06  1.00000000E-06  1.00000000E-06  1.00000000E-06  1.00000000E-06  1.00000000E-06  1.00000000E-06  1.00000000E-06  1.00000000E-06  1.00000000E-06  1.00000000E-06  1.00000000E-06  1.00000000E-06  1.00000000E-06  1.00000000E-06  1.00000000E-06  1.00000000E-06  1.00000000E-06  1.00000000E-06  1.00000000E-06  1.00000000E-06  1.00000000E-06
    1.00000000E-06  1.00000000E-06  1.00000000E-06  1.00000000E-06  1.00000000E-06  1.00000000E-06  1.00000000E-06  1.00000000E-06  1.00000000E-06  1.00000000E-06  1.00000000E-06  1.00000000E-06  1.00000000E-06  1.00000000E-06  1.00000000E-06  1.00000000E-06  1.00000000E-06  1.00000000E-06  1.00000000E-06  1.00000000E-06  1.00000000E-06  1.00000000E-06  1.00000000E-06  1.00000000E-06  1.00000000E-06  1.00000000E-06  1.00000000E-06  1.00000000E-06  1.00000000E-06  1.00000000E-06  1.00000000E-06  1.00000000E-06  1.00000000E-06  1.00000000E-06  1.00000000E-06  1.00000000E-06  1.00000000E-06  1.00000000E-06  1.00000000E-06  1.00000000E-06  1.00000000E-06  1.00000000E-06  1.00000000E-06  1.00000000E-06  1.00000000E-06  1.00000000E-06  1.00000000E-06  1.00000000E-06  1.00000000E-06  1.00000000E-06
    1.00000000E-06  1.00000000E-06  1.00000000E-06  1.00000000E-06  1.00000000E-06  1.00000000E-06  1.00000000E-06  1.00000000E-06  1.00000000E-06  1.00000000E-06  1.00000000E-06  1.00000000E-06  1.00000000E-06  1.00000000E-06  1.00000000E-06  1.00000000E-06  1.00000000E-06  1.00000000E-06  1.00000000E-06  1.00000000E-06  1.00000000E-06  1.00000000E-06  1.00000000E-06  1.00000000E-06  1.00000000E-06  1.00000000E-06  1.00000000E-06  1.00000000E-06  1.00000000E-06  1.00000000E-06  1.00000000E-06  1.00000000E-06  1.00000000E-06  1.00000000E-06  1.00000000E-06  1.00000000E-06  1.00000000E-06  1.00000000E-06  1.00000000E-06  1.00000000E-06  1.00000000E-06  1.00000000E-06  1.00000000E-06  1.00000000E-06  1.00000000E-06  1.00000000E-06  1.00000000E-06  1.00000000E-06  1.00000000E-06  1.00000000E-06
    1.00000000E-06  1.00000000E-06  1.00000000E-06  1.00000000E-06  1.00000000E-06  1.00000000E-06  1.00000000E-06  1.00000000E-06  1.00000000E-06  1.00000000E-06  1.00000000E-06  1.00000000E-06  1.00000000E-06  1.00000000E-06  1.00000000E-06  1.00000000E-06  1.00000000E-06  1.00000000E-06  1.00000000E-06  1.00000000E-06  1.00000000E-06  1.00000000E-06  1.00000000E-06  1.00000000E-06  1.00000000E-06  1.00000000E-06  1.00000000E-06  1.00000000E-06  1.00000000E-06  1.00000000E-06  1.00000000E-06  1.00000000E-06  1.00000000E-06  1.00000000E-06  1.00000000E-06  1.00000000E-06  1.00000000E-06  1.00000000E-06  1.00000000E-06  1.00000000E-06  1.00000000E-06  1.00000000E-06  1.00000000E-06  1.00000000E-06  1.00000000E-06  1.00000000E-06  1.00000000E-06  1.00000000E-06  1.00000000E-06  1.00000000E-06
  k22
    INTERNAL  FACTOR  1.0
    1.00000000E-06  1.00000000E-06  1.00000000E-06  1.00000000E-06  1.00000000E-06  1.00000000E-06  1.00000000E-06  1.00000000E-06  1.00000000E-06  1.00000000E-06  1.00000000E-06  1.00000000E-06  1.00000000E-06  1.00000000E-06  1.00000000E-06  1.00000000E-06  1.00000000E-06  1.00000000E-06  1.00000000E-06  1.00000000E-06  1.00000000E-06  1.00000000E-06  1.00000000E-06  1.00000000E-06  1.00000000E-06  1.00000000E-06  1.00000000E-06  1.00000000E-06  1.00000000E-06  1.00000000E-06  1.00000000E-06  1.00000000E-06  1.00000000E-06  1.00000000E-06  1.00000000E-06  1.00000000E-06  1.00000000E-06  1.00000000E-06  1.00000000E-06  1.00000000E-06  1.00000000E-06  1.00000000E-06  1.00000000E-06  1.00000000E-06  1.00000000E-06  1.00000000E-06  1.00000000E-06  1.00000000E-06  1.00000000E-06  1.00000000E-06
    1.00000000E-06  1.00000000E-06  1.00000000E-06  1.00000000E-06  1.00000000E-06  1.00000000E-06  1.00000000E-06  1.00000000E-06  1.00000000E-06  1.00000000E-06  1.00000000E-06  1.00000000E-06  1.00000000E-06  1.00000000E-06  1.00000000E-06  1.00000000E-06  1.00000000E-06  1.00000000E-06  1.00000000E-06  1.00000000E-06  1.00000000E-06  1.00000000E-06  1.00000000E-06  1.00000000E-06  1.00000000E-06  1.00000000E-06  1.00000000E-06  1.00000000E-06  1.00000000E-06  1.00000000E-06  1.00000000E-06  1.00000000E-06  1.00000000E-06  1.00000000E-06  1.00000000E-06  1.00000000E-06  1.00000000E-06  1.00000000E-06  1.00000000E-06  1.00000000E-06  1.00000000E-06  1.00000000E-06  1.00000000E-06  1.00000000E-06  1.00000000E-06  1.00000000E-06  1.00000000E-06  1.00000000E-06  1.00000000E-06  1.00000000E-06
    1.00000000E-06  1.00000000E-06  1.00000000E-06  1.00000000E-06  1.00000000E-06  1.00000000E-06  1.00000000E-06  1.00000000E-06  1.00000000E-06  1.00000000E-06  1.00000000E-06  1.00000000E-06  1.00000000E-06  1.00000000E-06  1.00000000E-06  1.00000000E-06  1.00000000E-06  1.00000000E-06  1.00000000E-06  1.00000000E-06  1.00000000E-06  1.00000000E-06  1.00000000E-06  1.00000000E-06  1.00000000E-06  1.00000000E-06  1.00000000E-06  1.00000000E-06  1.00000000E-06  1.00000000E-06  1.00000000E-06  1.00000000E-06  1.00000000E-06  1.00000000E-06  1.00000000E-06  1.00000000E-06  1.00000000E-06  1.00000000E-06  1.00000000E-06  1.00000000E-06  1.00000000E-06  1.00000000E-06  1.00000000E-06  1.00000000E-06  1.00000000E-06  1.00000000E-06  1.00000000E-06  1.00000000E-06  1.00000000E-06  1.00000000E-06